/*--------------------------------*- C++ -*----------------------------------*\
  =========                 |
  \\      /  F ield         | OpenFOAM: The Open Source CFD Toolbox
   \\    /   O peration     | Website:  https://openfoam.org
    \\  /    A nd           | Version:  8
     \\/     M anipulation  |
\*---------------------------------------------------------------------------*/
FoamFile
{
    version     2.0;
    format      binary;
    class       polyBoundaryMesh;
    location    "constant/polyMesh";
    object      boundary;
}
// * * * * * * * * * * * * * * * * * * * * * * * * * * * * * * * * * * * * * //

4
(
    inletOutlet
    {
        type            patch;
        nFaces          320;
        startFace       1116512;
    }
    top
    {
        type            empty;
        nFaces          86012;
        startFace       1116832;
    }
    bottom
    {
        type            empty;
        nFaces          84572;
        startFace       1202844;
    }
    Buildings
    {
        type            wall;
        inGroups        List<word> 1(wall);
        nFaces          1664;
        startFace       1287416;
    }
)

// ************************************************************************* //
