/*--------------------------------*- C++ -*----------------------------------*\
  =========                 |
  \\      /  F ield         | OpenFOAM: The Open Source CFD Toolbox
   \\    /   O peration     | Website:  https://openfoam.org
    \\  /    A nd           | Version:  8
     \\/     M anipulation  |
\*---------------------------------------------------------------------------*/
FoamFile
{
    version     2.0;
    format      binary;
    class       volScalarField;
    location    "1";
    object      epsilon;
}
// * * * * * * * * * * * * * * * * * * * * * * * * * * * * * * * * * * * * * //
#include    "include/initialConditions"

dimensions      [0 2 -3 0 0 0 0];

internalField   uniform $epsilonInlet;

boundaryField
{
    #include    "include/initialConditions"

    inletOutlet
    {
        type            inletOutlet;
        inletValue      uniform $epsilonInlet;
        value           uniform $epsilonInlet;
    }
    top
    {
        type            empty;
    }
    bottom
    {
        type            empty;
    }
    Buildings
    {
        type            epsilonWallFunction;
        value           uniform $epsilonInlet;
    }
}


// ************************************************************************* //
